
FoamFile
{
    version     2.0;
    format      ascii;
    class       dictionary;
    location    "system";
    object      changeDictionaryDict;
}

boundary
{
    inlet
    {
        type patch;
        physicalType patch;
    }
    outlet
    {
        type patch;
        physicalType patch;
    }
    p_side
    {
        type wall;
        physicalType wall;
    }
    s_side
    {
        type wall;
        physicalType wall;
    }
    walls
    {
        type wall;
        physicalType wall;
    }
    front
    {
        type symmetryPlane;
        physicalType symmetryPlane;
    }
    back
    {
        type symmetryPlane;
        physicalType symmetryPlane;
    }
}

